Circuit: * Z:\media\8C5E4AF45E4AD71C\Projekty\Laboratory_Supplier_With_Tft_Lcd_And_Touch_Panel\Analog_Circuit_Simulation_LTSpice\Power_Transformer_Circuit\Power_Tr_Module.asc

.OP point found by inspection.

Date: Fri Dec 10 20:39:43 2010
Total elapsed time: 8.657 seconds.

tnom = 27
temp = 27
method = modified trap
totiter = 1298193
traniter = 1298193
tranpoints = 395116
accept = 266109
rejected = 129007
matrix size = 8
fillins = 5
solver = Normal
Matrix Compiler1: 572 bajtów object code size  3.0/2.6/[2.3]
Matrix Compiler2: 656 bajtów object code size  2.3/2.8/[2.3]


