Circuit: * Z:\media\8C5E4AF45E4AD71C_\Projekty\Laboratory_Supplier_With_Tft_Lcd_And_Touch_Panel\Analog_Circuit_Simulation_LTSpice\Low_Pass_Filter.asc

.OP point found by inspection.

Date: Tue Jun 22 21:57:46 2010
Total elapsed time: 53.593 seconds.

tnom = 27
temp = 27
method = modified trap
totiter = 8100026
traniter = 8100026
tranpoints = 4050014
accept = 4050012
rejected = 2
matrix size = 3
fillins = 0
solver = Normal
Matrix Compiler1: 50 bajtów object code size  1.8/6.2/[1.8]
Matrix Compiler2:      15 opcodes  1.6/[1.7]/1.7


