Circuit: * Z:\media\8C5E4AF45E4AD71C\Projekty\Laboratory_Supplier_With_Tft_Lcd_And_Touch_Panel\Design_Calculation\LC_Filtr_Simulation\Filtr_LC_Supply.asc

.OP point found by inspection.

Date: Fri Oct 01 22:52:39 2010
Total elapsed time: 0.735 seconds.

tnom = 27
temp = 27
method = modified trap
totiter = 92998
traniter = 92998
tranpoints = 24136
accept = 17003
rejected = 7133
matrix size = 5
fillins = 1
solver = Normal
Matrix Compiler1: 262 bajtów object code size  1.7/1.6/[1.7]
Matrix Compiler2:      30 opcodes  2.1/[1.6]/2.6


