Circuit: * Z:\media\8C5E4AF45E4AD71C\Projekty\Laboratory_Supplier_With_Tft_Lcd_And_Touch_Panel\Analog_Circuit_Simulation_LTSpice\Transformer_Windings_Switching\Base_On_SN1500-APO.asc

Direct Newton iteration for .op point succeeded.

Date: Fri Dec 31 13:43:41 2010
Total elapsed time: 8.962 seconds.

tnom = 27
temp = 27
method = modified trap
totiter = 333294
traniter = 333264
tranpoints = 82854
accept = 58230
rejected = 24624
matrix size = 29
fillins = 22
solver = Normal
Matrix Compiler1: 2,63 KB object code size  3.6/3.5/[1.9]
Matrix Compiler2: 2,52 KB object code size  2.3/3.1/[2.4]


