Circuit: * Z:\media\8C5E4AF45E4AD71C\Projekty\Laboratory_Supplier_With_Tft_Lcd_And_Touch_Panel\Analog_Circuit_Simulation_LTSpice\Current_Circuit\CC.asc

Direct Newton iteration for .op point succeeded.

Date: Tue Dec 14 19:19:18 2010
Total elapsed time: 0.191 seconds.

tnom = 27
temp = 27
method = modified trap
totiter = 588
traniter = 556
tranpoints = 279
accept = 279
rejected = 0
matrix size = 31
fillins = 61
solver = Normal
Matrix Compiler1: 4,61 KB object code size  4.4/4.2/[2.3]
Matrix Compiler2: 3,46 KB object code size  2.9/3.3/[2.4]


