Circuit: * Z:\media\8C5E4AF45E4AD71C\Projekty\Laboratory_Supplier_With_Tft_Lcd_And_Touch_Panel\Analog_Circuit_Simulation_LTSpice\Current_Limiter\Cur_lm.asc

Direct Newton iteration for .op point succeeded.

Date: Tue Dec 21 20:01:01 2010
Total elapsed time: 0.234 seconds.

tnom = 27
temp = 27
method = modified trap
totiter = 4383
traniter = 4340
tranpoints = 2106
accept = 2094
rejected = 12
matrix size = 44
fillins = 28
solver = Normal
Matrix Compiler1: 3,05 KB object code size  7.8/6.9/[3.6]
Matrix Compiler2: 3,88 KB object code size  6.0/7.8/[4.6]


