Circuit: * Z:\media\8C5E4AF45E4AD71C\Projekty\Laboratory_Supplier_With_Tft_Lcd_And_Touch_Panel\Analog_Circuit_Simulation_LTSpice\Current_Limiter\Cur_Lm_01A.asc

Direct Newton iteration failed to find .op point.  (Use ".option noopiter" to skip.)
Starting Gmin stepping
Gmin = 10
Gmin = 1.07374
Gmin = 0.115292
Gmin = 0.0123794
Gmin = 0.00132923
Gmin = 0.000142725
Gmin = 1.5325e-005
Gmin = 1.6455e-006
Gmin = 1.76685e-007
Gmin = 1.89714e-008
Gmin = 2.03704e-009
Gmin = 2.18725e-010
Gmin = 2.34854e-011
Gmin = 2.52173e-012
Gmin = 2.70769e-013
Gmin = 0
Gmin stepping succeeded in finding the operating point.


Date: Thu Dec 23 23:47:34 2010
Total elapsed time: 0.311 seconds.

tnom = 27
temp = 27
method = modified trap
totiter = 4690
traniter = 4048
tranpoints = 2025
accept = 2025
rejected = 0
matrix size = 41
fillins = 59
solver = Normal
Matrix Compiler1: 4,80 KB object code size  4.5/3.8/[2.5]
Matrix Compiler2: 4,21 KB object code size  3.2/3.8/[2.9]


